dss/SegmentosMT.dss
New "Line.SMT_34422" phases=3 bus1="62911.1.2.3" bus2="62921.1.2.3" linecode="10_3" length=0.07120 units=km
New "Line.SMT_34421" phases=3 bus1="8001.1.2.3" bus2="62911.1.2.3" linecode="10_3" length=0.09291 units=km
New "Line.SMT_34420" phases=3 bus1="7991.1.2.3" bus2="8001.1.2.3" linecode="10_3" length=0.08994 units=km
New "Line.SMT_34711" phases=3 bus1="780431.1.2.3" bus2="71861.1.2.3" linecode="11_3" length=0.06996 units=km
New "Line.SMT_34710" phases=3 bus1="780421.1.2.3" bus2="71851.1.2.3" linecode="11_3" length=0.06156 units=km
New "Line.SMT_34709" phases=3 bus1="780411.1.2.3" bus2="71841.1.2.3" linecode="11_3" length=0.06019 units=km
New "Line.SMT_34708" phases=3 bus1="71841.1.2.3" bus2="71831.1.2.3" linecode="11_3" length=0.10805 units=km
New "Line.SMT_34707" phases=3 bus1="71831.1.2.3" bus2="71821.1.2.3" linecode="11_3" length=0.08373 units=km
New "Line.SMT_34706" phases=3 bus1="71821.1.2.3" bus2="71811.1.2.3" linecode="11_3" length=0.08987 units=km
New "Line.SMT_34705" phases=3 bus1="780401.1.2.3" bus2="71801.1.2.3" linecode="11_3" length=0.07539 units=km
New "Line.SMT_34704" phases=3 bus1="780391.1.2.3" bus2="71791.1.2.3" linecode="11_3" length=0.06293 units=km
New "Line.SMT_34703" phases=3 bus1="71791.1.2.3" bus2="71781.1.2.3" linecode="11_3" length=0.10069 units=km
New "Line.SMT_34702" phases=3 bus1="71781.1.2.3" bus2="71771.1.2.3" linecode="11_3" length=0.08376 units=km
New "Line.SMT_34701" phases=3 bus1="780381.1.2.3" bus2="71751.1.2.3" linecode="11_3" length=0.06174 units=km
New "Line.SMT_34700" phases=3 bus1="71751.1.2.3" bus2="71741.1.2.3" linecode="11_3" length=0.07220 units=km
New "Line.SMT_34721" phases=3 bus1="16CS245.1.2.3" bus2="553961.1.2.3" linecode="11_3" length=0.00158 units=km
New "Line.SMT_34720" phases=3 bus1="71871.1.2.3" bus2="780431.1.2.3" linecode="11_3" length=0.06454 units=km
New "Line.SMT_34719" phases=3 bus1="71861.1.2.3" bus2="780421.1.2.3" linecode="11_3" length=0.06136 units=km
New "Line.SMT_34718" phases=3 bus1="71851.1.2.3" bus2="780411.1.2.3" linecode="11_3" length=0.05886 units=km
New "Line.SMT_34717" phases=3 bus1="71811.1.2.3" bus2="780401.1.2.3" linecode="11_3" length=0.07633 units=km
New "Line.SMT_34716" phases=3 bus1="71801.1.2.3" bus2="780391.1.2.3" linecode="11_3" length=0.06327 units=km
New "Line.SMT_34715" phases=3 bus1="71771.1.2.3" bus2="780381.1.2.3" linecode="11_3" length=0.06115 units=km
New "Line.SMT_34714" phases=3 bus1="553951.1.2.3" bus2="780441.1.2.3" linecode="11_3" length=0.00220 units=km
New "Line.SMT_34713" phases=3 bus1="71741.1.2.3" bus2="536711.1.2.3" linecode="11_3" length=0.03048 units=km
New "Line.SMT_34712" phases=3 bus1="553961.1.2.3" bus2="71871.1.2.3" linecode="11_3" length=0.04631 units=km
New "Line.SMT_40856" phases=3 bus1="824391.1.2.3" bus2="824401.1.2.3" linecode="11_3" length=0.08570 units=km
New "Line.SMT_40855" phases=3 bus1="824381.1.2.3" bus2="824391.1.2.3" linecode="11_3" length=0.08110 units=km
New "Line.SMT_40859" phases=3 bus1="824421.1.2.3" bus2="824431.1.2.3" linecode="11_3" length=0.07084 units=km
New "Line.SMT_40858" phases=3 bus1="824411.1.2.3" bus2="824421.1.2.3" linecode="11_3" length=0.08700 units=km
New "Line.SMT_40857" phases=3 bus1="824401.1.2.3" bus2="824411.1.2.3" linecode="11_3" length=0.08775 units=km
New "Line.SMT_36130" phases=1 bus1="16CF1699.1" bus2="790091.1" linecode="1_1" length=0.00093 units=km
New "Line.SMT_36129" phases=1 bus1="755911.1" bus2="790081.1" linecode="1_1" length=0.00169 units=km
New "Line.SMT_36128" phases=1 bus1="790041.1" bus2="790051.1" linecode="1_1" length=0.09672 units=km
New "Line.SMT_36127" phases=1 bus1="790031.1" bus2="790041.1" linecode="1_1" length=0.10857 units=km
New "Line.SMT_36126" phases=1 bus1="790021.1" bus2="790031.1" linecode="1_1" length=0.06993 units=km
New "Line.SMT_36125" phases=1 bus1="790091.1" bus2="790021.1" linecode="1_1" length=0.02158 units=km
New "Line.SMT_36207" phases=3 bus1="21981.1.2.3" bus2="21971.1.2.3" linecode="10_3" length=0.10939 units=km
New "Line.SMT_36206" phases=3 bus1="21861.1.2.3" bus2="21851.1.2.3" linecode="10_3" length=0.09787 units=km
New "Line.SMT_36326" phases=1 bus1="48531.1" bus2="30731.1" linecode="1_1" length=0.10112 units=km
New "Line.SMT_36333" phases=1 bus1="48551.1" bus2="48561.1" linecode="1_1" length=0.13065 units=km
New "Line.SMT_36332" phases=1 bus1="48541.1" bus2="48551.1" linecode="1_1" length=0.09551 units=km
New "Line.SMT_36331" phases=1 bus1="48531.1" bus2="48541.1" linecode="1_1" length=0.08228 units=km
New "Line.SMT_36330" phases=1 bus1="30761.1" bus2="30771.1" linecode="1_1" length=0.08944 units=km
New "Line.SMT_36329" phases=1 bus1="30751.1" bus2="30761.1" linecode="1_1" length=0.07043 units=km
New "Line.SMT_36328" phases=1 bus1="30741.1" bus2="30751.1" linecode="1_1" length=0.10104 units=km
New "Line.SMT_36327" phases=1 bus1="30731.1" bus2="30741.1" linecode="1_1" length=0.09964 units=km
New "Line.SMT_36563" phases=3 bus1="6FR180.1.2.3" bus2="792851.1.2.3" linecode="10_3" length=0.00162 units=km
New "Line.SMT_36562" phases=3 bus1="66451.1.2.3" bus2="792841.1.2.3" linecode="10_3" length=0.00214 units=km
New "Line.SMT_36561" phases=3 bus1="792851.1.2.3" bus2="66461.1.2.3" linecode="10_3" length=0.09091 units=km
New "Line.SMT_36560" phases=3 bus1="66431.1.2.3" bus2="66441.1.2.3" linecode="10_3" length=0.10400 units=km
New "Line.SMT_36787" phases=1 bus1="755911.1" bus2="793981.1" linecode="1_1" length=0.03015 units=km
New "Line.SMT_36916" phases=1 bus1="16CF1723.2" bus2="27241.2" linecode="1_1" length=0.07119 units=km
New "Line.SMT_37215" phases=3 bus1="8961.1.2.3" bus2="796401.1.2.3" linecode="10_3" length=0.07509 units=km
New "Line.SMT_37255" phases=1 bus1="610701.3" bus2="610711.3" linecode="1_1" length=0.11042 units=km
New "Line.SMT_37351" phases=2 bus1="16CF1637.3.1" bus2="797071.3.1" linecode="18_2" length=0.00225 units=km
New "Line.SMT_37350" phases=2 bus1="48491.3.1" bus2="797061.3.1" linecode="18_2" length=0.00210 units=km
New "Line.SMT_37349" phases=2 bus1="797071.3.1" bus2="48501.3.1" linecode="18_2" length=0.09904 units=km
New "Line.SMT_37701" phases=1 bus1="640621.2" bus2="799351.2" linecode="1_1" length=0.00264 units=km
New "Line.SMT_37700" phases=1 bus1="16CF1875.2" bus2="640631.2" linecode="1_1" length=0.14770 units=km
New "Line.SMT_37766" phases=3 bus1="758801.1.2.3" bus2="799921.1.2.3" linecode="10_3" length=0.00191 units=km
New "Line.SMT_37765" phases=3 bus1="799901.1.2.3" bus2="799911.1.2.3" linecode="10_3" length=0.08347 units=km
New "Line.SMT_37764" phases=3 bus1="799891.1.2.3" bus2="799901.1.2.3" linecode="10_3" length=0.09556 units=km
New "Line.SMT_37763" phases=3 bus1="799881.1.2.3" bus2="799891.1.2.3" linecode="10_3" length=0.09031 units=km
New "Line.SMT_37762" phases=3 bus1="6CF1831.1.2.3" bus2="799881.1.2.3" linecode="10_3" length=0.07624 units=km
New "Line.SMT_37835" phases=1 bus1="6FR1830.1" bus2="313521.1" linecode="1_1" length=0.11085 units=km
New "Line.SMT_37834" phases=1 bus1="313521.1" bus2="313511.1" linecode="1_1" length=0.10211 units=km
New "Line.SMT_37833" phases=1 bus1="10372.1" bus2="313471.1" linecode="1_1" length=0.14603 units=km
New "Line.SMT_37832" phases=1 bus1="326321.1" bus2="10441.1" linecode="1_1" length=0.06218 units=km
New "Line.SMT_37831" phases=3 bus1="800561.1.2.3" bus2="10391.1.2.3" linecode="13_3" length=0.04096 units=km
New "Line.SMT_37830" phases=1 bus1="10372.1" bus2="10381.1" linecode="1_1" length=0.10837 units=km
New "Line.SMT_37829" phases=1 bus1="313511.1" bus2="10372.1" linecode="1_1" length=0.14666 units=km
New "Line.SMT_37853" phases=3 bus1="800501.1.2.3" bus2="800511.1.2.3" linecode="13_3" length=0.08367 units=km
New "Line.SMT_37852" phases=3 bus1="800491.1.2.3" bus2="800501.1.2.3" linecode="13_3" length=0.07886 units=km
New "Line.SMT_37851" phases=3 bus1="800481.1.2.3" bus2="800491.1.2.3" linecode="13_3" length=0.08208 units=km
New "Line.SMT_37850" phases=3 bus1="800471.1.2.3" bus2="800481.1.2.3" linecode="13_3" length=0.08180 units=km
New "Line.SMT_37849" phases=3 bus1="800461.1.2.3" bus2="800471.1.2.3" linecode="13_3" length=0.08478 units=km
New "Line.SMT_37848" phases=3 bus1="800451.1.2.3" bus2="800461.1.2.3" linecode="13_3" length=0.08452 units=km
New "Line.SMT_37847" phases=3 bus1="800441.1.2.3" bus2="800451.1.2.3" linecode="13_3" length=0.05944 units=km
New "Line.SMT_37846" phases=3 bus1="800431.1.2.3" bus2="800441.1.2.3" linecode="13_3" length=0.08118 units=km
New "Line.SMT_37845" phases=3 bus1="800421.1.2.3" bus2="800431.1.2.3" linecode="13_3" length=0.08659 units=km
New "Line.SMT_37843" phases=3 bus1="800401.1.2.3" bus2="800411.1.2.3" linecode="13_3" length=0.07997 units=km
New "Line.SMT_37842" phases=3 bus1="461491.1.2.3" bus2="800401.1.2.3" linecode="13_3" length=0.04135 units=km
New "Line.SMT_37841" phases=3 bus1="800381.1.2.3" bus2="800391.1.2.3" linecode="13_3" length=0.04993 units=km
New "Line.SMT_37840" phases=3 bus1="10301.1.2.3" bus2="800381.1.2.3" linecode="10_3" length=0.07858 units=km
New "Line.SMT_37839" phases=3 bus1="461472.1.2.3" bus2="461501.1.2.3" linecode="10_3" length=0.03290 units=km
New "Line.SMT_37838" phases=3 bus1="461472.1.2.3" bus2="461491.1.2.3" linecode="13_3" length=0.06646 units=km
New "Line.SMT_37837" phases=3 bus1="800391.1.2.3" bus2="461472.1.2.3" linecode="13_3" length=0.08210 units=km
New "Line.SMT_37836" phases=1 bus1="10431.1" bus2="326321.1" linecode="1_1" length=0.08627 units=km
New "Line.SMT_37870" phases=3 bus1="800691.1.2.3" bus2="800701.1.2.3" linecode="13_3" length=0.07458 units=km
New "Line.SMT_37869" phases=3 bus1="800681.1.2.3" bus2="800691.1.2.3" linecode="13_3" length=0.08742 units=km
New "Line.SMT_37868" phases=3 bus1="800671.1.2.3" bus2="800681.1.2.3" linecode="13_3" length=0.08783 units=km
New "Line.SMT_37867" phases=3 bus1="800661.1.2.3" bus2="800671.1.2.3" linecode="13_3" length=0.09046 units=km
New "Line.SMT_37866" phases=3 bus1="800652.1.2.3" bus2="800661.1.2.3" linecode="13_3" length=0.08783 units=km
New "Line.SMT_37865" phases=3 bus1="800721.1.2.3" bus2="800652.1.2.3" linecode="13_3" length=0.06803 units=km
New "Line.SMT_37864" phases=3 bus1="800631.1.2.3" bus2="800641.1.2.3" linecode="13_3" length=0.03953 units=km
New "Line.SMT_37863" phases=3 bus1="800621.1.2.3" bus2="800631.1.2.3" linecode="13_3" length=0.03950 units=km
New "Line.SMT_37862" phases=3 bus1="800611.1.2.3" bus2="800621.1.2.3" linecode="13_3" length=0.06527 units=km
New "Line.SMT_37861" phases=3 bus1="800601.1.2.3" bus2="800611.1.2.3" linecode="13_3" length=0.07906 units=km
New "Line.SMT_37860" phases=3 bus1="800591.1.2.3" bus2="800601.1.2.3" linecode="13_3" length=0.08342 units=km
New "Line.SMT_37859" phases=3 bus1="800581.1.2.3" bus2="800591.1.2.3" linecode="13_3" length=0.06219 units=km
New "Line.SMT_37858" phases=3 bus1="10391.1.2.3" bus2="800581.1.2.3" linecode="13_3" length=0.08604 units=km
New "Line.SMT_37857" phases=1 bus1="800531.1" bus2="800571.1" linecode="1_1" length=0.04054 units=km
New "Line.SMT_37856" phases=3 bus1="800531.1.2.3" bus2="800561.1.2.3" linecode="13_3" length=0.06798 units=km
New "Line.SMT_37855" phases=3 bus1="800521.1.2.3" bus2="800531.1.2.3" linecode="13_3" length=0.08846 units=km
New "Line.SMT_37854" phases=3 bus1="800511.1.2.3" bus2="800521.1.2.3" linecode="13_3" length=0.08146 units=km
New "Line.SMT_37887" phases=3 bus1="800861.1.2.3" bus2="800871.1.2.3" linecode="13_3" length=0.08677 units=km
New "Line.SMT_37886" phases=3 bus1="800851.1.2.3" bus2="800861.1.2.3" linecode="13_3" length=0.08366 units=km
New "Line.SMT_37885" phases=3 bus1="800841.1.2.3" bus2="800851.1.2.3" linecode="13_3" length=0.08457 units=km
New "Line.SMT_37884" phases=3 bus1="800831.1.2.3" bus2="800841.1.2.3" linecode="13_3" length=0.08491 units=km
New "Line.SMT_37883" phases=3 bus1="800821.1.2.3" bus2="800831.1.2.3" linecode="13_3" length=0.08752 units=km
New "Line.SMT_37882" phases=3 bus1="800811.1.2.3" bus2="800821.1.2.3" linecode="13_3" length=0.08468 units=km
New "Line.SMT_37881" phases=3 bus1="800801.1.2.3" bus2="800811.1.2.3" linecode="13_3" length=0.08600 units=km
New "Line.SMT_37880" phases=3 bus1="800791.1.2.3" bus2="800801.1.2.3" linecode="13_3" length=0.08090 units=km
New "Line.SMT_37879" phases=3 bus1="800781.1.2.3" bus2="800791.1.2.3" linecode="13_3" length=0.08926 units=km
New "Line.SMT_37878" phases=3 bus1="800771.1.2.3" bus2="800781.1.2.3" linecode="13_3" length=0.08402 units=km
New "Line.SMT_37877" phases=3 bus1="800761.1.2.3" bus2="800771.1.2.3" linecode="13_3" length=0.08716 units=km
New "Line.SMT_37876" phases=3 bus1="800751.1.2.3" bus2="800761.1.2.3" linecode="13_3" length=0.08762 units=km
New "Line.SMT_37875" phases=3 bus1="800741.1.2.3" bus2="800751.1.2.3" linecode="13_3" length=0.08803 units=km
New "Line.SMT_37874" phases=3 bus1="800732.1.2.3" bus2="800741.1.2.3" linecode="13_3" length=0.08556 units=km
New "Line.SMT_37873" phases=3 bus1="801451.1.2.3" bus2="800732.1.2.3" linecode="13_3" length=0.07948 units=km
New "Line.SMT_37872" phases=3 bus1="6CF1829.1.2.3" bus2="800721.1.2.3" linecode="13_3" length=0.04193 units=km
New "Line.SMT_37871" phases=3 bus1="800701.1.2.3" bus2="800712.1.2.3" linecode="13_3" length=0.08979 units=km
New "Line.SMT_37904" phases=3 bus1="801031.1.2.3" bus2="801041.1.2.3" linecode="13_3" length=0.08191 units=km
New "Line.SMT_37903" phases=3 bus1="800981.1.2.3" bus2="801031.1.2.3" linecode="13_3" length=0.06207 units=km
New "Line.SMT_37902" phases=3 bus1="801011.1.2.3" bus2="801021.1.2.3" linecode="13_3" length=0.07339 units=km
New "Line.SMT_37901" phases=3 bus1="801001.1.2.3" bus2="801011.1.2.3" linecode="13_3" length=0.07567 units=km
New "Line.SMT_37900" phases=3 bus1="800991.1.2.3" bus2="801001.1.2.3" linecode="13_3" length=0.08681 units=km
New "Line.SMT_37899" phases=3 bus1="6CF1828.1.2.3" bus2="800991.1.2.3" linecode="13_3" length=0.08520 units=km
New "Line.SMT_37898" phases=3 bus1="800971.1.2.3" bus2="800981.1.2.3" linecode="13_3" length=0.09223 units=km
New "Line.SMT_37897" phases=3 bus1="800961.1.2.3" bus2="800971.1.2.3" linecode="13_3" length=0.08019 units=km
New "Line.SMT_37896" phases=3 bus1="800951.1.2.3" bus2="800961.1.2.3" linecode="13_3" length=0.08607 units=km
New "Line.SMT_37895" phases=3 bus1="800941.1.2.3" bus2="800951.1.2.3" linecode="13_3" length=0.08475 units=km
New "Line.SMT_37894" phases=3 bus1="800931.1.2.3" bus2="800941.1.2.3" linecode="13_3" length=0.08021 units=km
New "Line.SMT_37893" phases=3 bus1="800921.1.2.3" bus2="800931.1.2.3" linecode="13_3" length=0.08378 units=km
New "Line.SMT_37892" phases=3 bus1="800911.1.2.3" bus2="800921.1.2.3" linecode="13_3" length=0.08086 units=km
New "Line.SMT_37891" phases=3 bus1="800901.1.2.3" bus2="800911.1.2.3" linecode="13_3" length=0.08604 units=km
New "Line.SMT_37890" phases=3 bus1="800891.1.2.3" bus2="800901.1.2.3" linecode="13_3" length=0.11635 units=km
New "Line.SMT_37889" phases=3 bus1="800881.1.2.3" bus2="800891.1.2.3" linecode="13_3" length=0.05851 units=km
New "Line.SMT_37888" phases=3 bus1="800871.1.2.3" bus2="800881.1.2.3" linecode="13_3" length=0.05604 units=km
New "Line.SMT_37922" phases=3 bus1="800981.1.2.3" bus2="801221.1.2.3" linecode="13_3" length=0.00143 units=km
New "Line.SMT_37921" phases=1 bus1="800571.1" bus2="801211.1" linecode="1_1" length=0.00050 units=km
New "Line.SMT_37920" phases=3 bus1="801191.1.2.3" bus2="801201.1.2.3" linecode="13_3" length=0.09134 units=km
New "Line.SMT_37919" phases=3 bus1="801181.1.2.3" bus2="801191.1.2.3" linecode="13_3" length=0.08973 units=km
New "Line.SMT_37918" phases=3 bus1="801171.1.2.3" bus2="801181.1.2.3" linecode="13_3" length=0.08590 units=km
New "Line.SMT_37917" phases=3 bus1="801161.1.2.3" bus2="801171.1.2.3" linecode="13_3" length=0.08857 units=km
New "Line.SMT_37916" phases=3 bus1="801151.1.2.3" bus2="801161.1.2.3" linecode="13_3" length=0.08743 units=km
New "Line.SMT_37915" phases=3 bus1="801141.1.2.3" bus2="801151.1.2.3" linecode="13_3" length=0.06499 units=km
New "Line.SMT_37914" phases=3 bus1="801131.1.2.3" bus2="801141.1.2.3" linecode="13_3" length=0.08514 units=km
New "Line.SMT_37913" phases=3 bus1="801121.1.2.3" bus2="801131.1.2.3" linecode="13_3" length=0.08966 units=km
New "Line.SMT_37912" phases=3 bus1="801111.1.2.3" bus2="801121.1.2.3" linecode="13_3" length=0.08690 units=km
New "Line.SMT_37911" phases=3 bus1="801101.1.2.3" bus2="822931.1.2.3" linecode="13_3" length=0.00483 units=km
New "Line.SMT_37910" phases=3 bus1="801091.1.2.3" bus2="801101.1.2.3" linecode="13_3" length=0.08847 units=km
New "Line.SMT_37909" phases=3 bus1="801081.1.2.3" bus2="801091.1.2.3" linecode="13_3" length=0.08679 units=km
New "Line.SMT_37908" phases=3 bus1="801071.1.2.3" bus2="801081.1.2.3" linecode="13_3" length=0.09082 units=km
New "Line.SMT_37906" phases=3 bus1="801051.1.2.3" bus2="801061.1.2.3" linecode="13_3" length=0.08760 units=km
New "Line.SMT_37905" phases=3 bus1="801041.1.2.3" bus2="801051.1.2.3" linecode="13_3" length=0.08161 units=km
New "Line.SMT_37939" phases=3 bus1="801381.1.2.3" bus2="801391.1.2.3" linecode="13_3" length=0.08025 units=km
New "Line.SMT_37938" phases=3 bus1="801371.1.2.3" bus2="801381.1.2.3" linecode="13_3" length=0.08124 units=km
New "Line.SMT_37937" phases=3 bus1="801361.1.2.3" bus2="801371.1.2.3" linecode="13_3" length=0.07990 units=km
New "Line.SMT_37936" phases=3 bus1="801351.1.2.3" bus2="801361.1.2.3" linecode="13_3" length=0.07999 units=km
New "Line.SMT_37935" phases=3 bus1="801341.1.2.3" bus2="801351.1.2.3" linecode="13_3" length=0.07240 units=km
New "Line.SMT_37934" phases=3 bus1="801331.1.2.3" bus2="801341.1.2.3" linecode="13_3" length=0.07917 units=km
New "Line.SMT_37933" phases=3 bus1="801321.1.2.3" bus2="801331.1.2.3" linecode="13_3" length=0.07967 units=km
New "Line.SMT_37932" phases=3 bus1="801311.1.2.3" bus2="801321.1.2.3" linecode="13_3" length=0.07975 units=km
New "Line.SMT_37931" phases=3 bus1="801301.1.2.3" bus2="801311.1.2.3" linecode="38_3" length=0.04705 units=km
New "Line.SMT_37930" phases=3 bus1="801291.1.2.3" bus2="801301.1.2.3" linecode="38_3" length=0.04291 units=km
New "Line.SMT_37929" phases=3 bus1="801281.1.2.3" bus2="801291.1.2.3" linecode="38_3" length=0.04683 units=km
New "Line.SMT_37928" phases=3 bus1="801271.1.2.3" bus2="801281.1.2.3" linecode="38_3" length=0.04734 units=km
New "Line.SMT_37927" phases=3 bus1="801261.1.2.3" bus2="801271.1.2.3" linecode="38_3" length=0.04701 units=km
New "Line.SMT_37926" phases=3 bus1="801251.1.2.3" bus2="801261.1.2.3" linecode="38_3" length=0.04650 units=km
New "Line.SMT_37925" phases=3 bus1="801241.1.2.3" bus2="801251.1.2.3" linecode="13_3" length=0.03949 units=km
New "Line.SMT_37924" phases=3 bus1="801231.1.2.3" bus2="801241.1.2.3" linecode="13_3" length=0.08455 units=km
New "Line.SMT_37923" phases=3 bus1="800641.1.2.3" bus2="801231.1.2.3" linecode="13_3" length=0.08340 units=km
New "Line.SMT_37957" phases=3 bus1="30881.1.2.3" bus2="30871.1.2.3" linecode="13_3" length=0.11079 units=km
New "Line.SMT_37956" phases=3 bus1="30871.1.2.3" bus2="30861.1.2.3" linecode="13_3" length=0.11131 units=km
New "Line.SMT_37955" phases=3 bus1="30861.1.2.3" bus2="30851.1.2.3" linecode="13_3" length=0.09402 units=km
New "Line.SMT_37954" phases=3 bus1="30851.1.2.3" bus2="30841.1.2.3" linecode="13_3" length=0.11682 units=km
New "Line.SMT_37953" phases=3 bus1="30841.1.2.3" bus2="30831.1.2.3" linecode="13_3" length=0.10754 units=km
New "Line.SMT_37952" phases=3 bus1="30831.1.2.3" bus2="30821.1.2.3" linecode="13_3" length=0.11152 units=km
New "Line.SMT_37951" phases=3 bus1="30821.1.2.3" bus2="30811.1.2.3" linecode="13_3" length=0.09051 units=km
New "Line.SMT_37950" phases=3 bus1="31742.1.2.3" bus2="22951.1.2.3" linecode="13_3" length=0.00177 units=km
New "Line.SMT_37948" phases=3 bus1="60961.1.2.3" bus2="21731.1.2.3" linecode="13_3" length=0.10160 units=km
New "Line.SMT_37947" phases=3 bus1="21731.1.2.3" bus2="21721.1.2.3" linecode="13_3" length=0.09879 units=km
New "Line.SMT_37946" phases=3 bus1="801251.1.2.3" bus2="801461.1.2.3" linecode="13_3" length=0.00204 units=km
New "Line.SMT_37945" phases=3 bus1="801441.1.2.3" bus2="801451.1.2.3" linecode="13_3" length=0.05669 units=km
New "Line.SMT_37944" phases=3 bus1="801431.1.2.3" bus2="801441.1.2.3" linecode="13_3" length=0.06641 units=km
New "Line.SMT_37943" phases=3 bus1="801421.1.2.3" bus2="801431.1.2.3" linecode="13_3" length=0.07815 units=km
New "Line.SMT_37942" phases=3 bus1="801411.1.2.3" bus2="801421.1.2.3" linecode="13_3" length=0.07754 units=km
New "Line.SMT_37941" phases=3 bus1="801401.1.2.3" bus2="801411.1.2.3" linecode="13_3" length=0.07687 units=km
New "Line.SMT_37940" phases=3 bus1="801391.1.2.3" bus2="801401.1.2.3" linecode="13_3" length=0.07854 units=km
New "Line.SMT_37974" phases=3 bus1="310331.1.2.3" bus2="48371.1.2.3" linecode="13_3" length=0.10211 units=km
New "Line.SMT_37973" phases=3 bus1="356521.1.2.3" bus2="48361.1.2.3" linecode="13_3" length=0.04243 units=km
New "Line.SMT_37972" phases=3 bus1="309871.1.2.3" bus2="48331.1.2.3" linecode="13_3" length=0.10143 units=km
New "Line.SMT_37971" phases=3 bus1="48331.1.2.3" bus2="48321.1.2.3" linecode="13_3" length=0.07099 units=km
New "Line.SMT_37970" phases=3 bus1="48321.1.2.3" bus2="48311.1.2.3" linecode="13_3" length=0.13716 units=km
New "Line.SMT_37969" phases=3 bus1="48311.1.2.3" bus2="48301.1.2.3" linecode="13_3" length=0.07751 units=km
New "Line.SMT_37968" phases=3 bus1="48301.1.2.3" bus2="48291.1.2.3" linecode="13_3" length=0.10065 units=km
New "Line.SMT_37967" phases=3 bus1="48291.1.2.3" bus2="37761.1.2.3" linecode="13_3" length=0.10242 units=km
New "Line.SMT_37966" phases=3 bus1="37761.1.2.3" bus2="37741.1.2.3" linecode="13_3" length=0.09976 units=km
New "Line.SMT_37965" phases=3 bus1="37731.1.2.3" bus2="37671.1.2.3" linecode="13_3" length=0.04701 units=km
...
