dss/SegmentosBT.dss
New "Line.SBT_35173" phases=4 bus1="BT74751.1.2.3.4" bus2="ET16_6318.1.2.3.4" linecode="74_4" length=0.03715 units=km
New "Line.SBT_34893" phases=2 bus1="BT806211.1.4" bus2="ET6_6272.1.4" linecode="62_2" length=0.04084 units=km
New "Line.SBT_34894" phases=2 bus1="BT806221.1.4" bus2="BT806211.1.4" linecode="62_2" length=0.05437 units=km
New "Line.SBT_34896" phases=2 bus1="BT806241.1.4" bus2="ET16_3221.1.4" linecode="62_2" length=0.07062 units=km
New "Line.SBT_34898" phases=2 bus1="BT806261.1.4" bus2="BT619041.1.4" linecode="62_2" length=0.03416 units=km
New "Line.SBT_34378" phases=4 bus1="BT10391.1.2.3.4" bus2="ET6_6153.1.2.3.4" linecode="74_4" length=0.04296 units=km
New "Line.SBT_34379" phases=4 bus1="BT10401.1.2.3.4" bus2="BT10391.1.2.3.4" linecode="74_4" length=0.02285 units=km
New "Line.SBT_34381" phases=2 bus1="BT11271.1.4" bus2="ET6_1475.1.4" linecode="60_2" length=0.16348 units=km
New "Line.SBT_34382" phases=4 bus1="BT197792.1.2.3.4" bus2="BT800551.1.2.3.4" linecode="74_4" length=0.04076 units=km
New "Line.SBT_34383" phases=4 bus1="BT295341.1.2.3.4" bus2="BT800541.1.2.3.4" linecode="74_4" length=0.03046 units=km
New "Line.SBT_34384" phases=4 bus1="BT295361.1.2.3.4" bus2="BT295341.1.2.3.4" linecode="74_4" length=0.04913 units=km
New "Line.SBT_34385" phases=2 bus1="BT326331.1.4" bus2="ET6_1503.1.4" linecode="60_2" length=0.07083 units=km
New "Line.SBT_34386" phases=3 bus1="BT332111.1.2.4" bus2="BT711881.1.2.4" linecode="59_3" length=0.04094 units=km
New "Line.SBT_34388" phases=3 bus1="BT461491.1.2.4" bus2="ET6_1177.1.2.4" linecode="59_3" length=0.06646 units=km
New "Line.SBT_34389" phases=4 bus1="BT474991.1.2.3.4" bus2="BT295361.1.2.3.4" linecode="74_4" length=0.03869 units=km
New "Line.SBT_34390" phases=2 bus1="BT475001.1.4" bus2="BT474991.1.4" linecode="60_2" length=0.12443 units=km
New "Line.SBT_34391" phases=3 bus1="BT711881.1.2.4" bus2="BT461491.1.2.4" linecode="59_3" length=0.04448 units=km
New "Line.SBT_34392" phases=4 bus1="BT800541.1.2.3.4" bus2="BT800551.1.2.3.4" linecode="74_4" length=0.03148 units=km
New "Line.SBT_34393" phases=4 bus1="BT800551.1.2.3.4" bus2="BT10401.1.2.3.4" linecode="74_4" length=0.03303 units=km
New "Line.SBT_34094" phases=4 bus1="BT642431.1.2.3.4" bus2="ET16_4687.1.2.3.4" linecode="74_4" length=0.04942 units=km
New "Line.SBT_34001" phases=2 bus1="BT610702.1.4" bus2="BT610692.1.4" linecode="62_2" length=0.09070 units=km
New "Line.SBT_34003" phases=2 bus1="BT611441.1.4" bus2="BT610702.1.4" linecode="62_2" length=0.09319 units=km
New "Line.SBT_34000" phases=2 bus1="BT610692.1.4" bus2="ET16_5055.1.4" linecode="62_2" length=0.03982 units=km
New "Line.SBT_37537" phases=4 bus1="BT74031.1.2.3.4" bus2="BT74041.1.2.3.4" linecode="73_4" length=0.07864 units=km
New "Line.SBT_37538" phases=4 bus1="BT74041.1.2.3.4" bus2="BT74051.1.2.3.4" linecode="73_4" length=0.04965 units=km
New "Line.SBT_37539" phases=4 bus1="BT74051.1.2.3.4" bus2="ET6_124.1.2.3.4" linecode="73_4" length=0.05049 units=km
New "Line.SBT_37540" phases=4 bus1="BT74061.1.2.3.4" bus2="ET6_124.1.2.3.4" linecode="73_4" length=0.05045 units=km
New "Line.SBT_37541" phases=4 bus1="BT74081.1.2.3.4" bus2="BT74091.1.2.3.4" linecode="73_4" length=0.08902 units=km
New "Line.SBT_37542" phases=4 bus1="BT74091.1.2.3.4" bus2="BT74061.1.2.3.4" linecode="73_4" length=0.06768 units=km
New "Line.SBT_37544" phases=4 bus1="BT74141.1.2.3.4" bus2="ET6_124.1.2.3.4" linecode="73_4" length=0.07793 units=km
New "Line.SBT_33399" phases=2 bus1="BT30781.1.4" bus2="ET16_6082.1.4" linecode="60_2" length=0.10058 units=km
New "Line.SBT_33400" phases=2 bus1="BT30791.1.4" bus2="BT30781.1.4" linecode="60_2" length=0.12021 units=km

New "Line.SBT_15527" phases=2 bus1="BT611442.1.4" bus2="BT611451.1.4" linecode="62_2" length=0.08766 units=km
New "Line.SBT_31047" phases=2 bus1="BT3521.1.4" bus2="ET16_1585.1.4" linecode="60_2" length=0.08222 units=km
New "Line.SBT_31048" phases=2 bus1="BT3541.1.4" bus2="BT3521.1.4" linecode="60_2" length=0.09742 units=km
New "Line.SBT_31049" phases=2 bus1="BT3571.1.4" bus2="BT3541.1.4" linecode="60_2" length=0.06503 units=km
New "Line.SBT_31061" phases=2 bus1="BT41891.1.4" bus2="ET16_5730.1.4" linecode="60_2" length=0.09003 units=km
New "Line.SBT_31062" phases=2 bus1="BT41901.1.4" bus2="BT41891.1.4" linecode="60_2" length=0.07810 units=km
New "Line.SBT_31020" phases=3 bus1="BT325231.1.2.4" bus2="BT765771.1.2.4" linecode="59_3" length=0.03293 units=km
New "Line.SBT_31021" phases=3 bus1="BT765771.1.2.4" bus2="ET6_1256.1.2.4" linecode="59_3" length=0.06669 units=km
New "Line.SBT_30492" phases=3 bus1="BT132171.1.2.4" bus2="ET6_1262.1.2.4" linecode="47_3" length=0.04856 units=km
New "Line.SBT_29861" phases=3 bus1="BT42491.1.2.4" bus2="BT755641.1.2.4" linecode="44_3" length=0.03920 units=km
New "Line.SBT_29862" phases=3 bus1="BT755641.1.2.4" bus2="ET11_132.1.2.4" linecode="44_3" length=0.03027 units=km
New "Line.SBT_2728" phases=3 bus1="BT74121.1.2.4" bus2="BT74111.1.2.4" linecode="44_3" length=0.06395 units=km
New "Line.SBT_15418" phases=4 bus1="BT489321.1.2.3.4" bus2="BT60581.1.2.3.4" linecode="73_4" length=0.09617 units=km
New "Line.SBT_18132" phases=3 bus1="BT26771.1.2.4" bus2="BT26781.1.2.4" linecode="59_3" length=0.09426 units=km
New "Line.SBT_7428" phases=2 bus1="BT48461.2.4" bus2="BT48451.2.4" linecode="62_2" length=0.06970 units=km
New "Line.SBT_21224" phases=3 bus1="BT27801.1.2.4" bus2="BT27791.1.2.4" linecode="44_3" length=0.09519 units=km
New "Line.SBT_13256" phases=2 bus1="BT615261.1.4" bus2="BT615271.1.4" linecode="60_2" length=0.14000 units=km
New "Line.SBT_13265" phases=2 bus1="BT614861.1.4" bus2="BT614851.1.4" linecode="62_2" length=0.10448 units=km
New "Line.SBT_10155" phases=3 bus1="BT26681.1.2.4" bus2="BT26671.1.2.4" linecode="44_3" length=0.09677 units=km
New "Line.SBT_7545" phases=3 bus1="BT2531.1.2.4" bus2="BT2521.1.2.4" linecode="44_3" length=0.07931 units=km
New "Line.SBT_7561" phases=3 bus1="BT74791.1.2.4" bus2="BT74781.1.2.4" linecode="91_3" length=0.07080 units=km
New "Line.SBT_7598" phases=3 bus1="BT44371.1.2.4" bus2="ET16_504.1.2.4" linecode="44_3" length=0.06140 units=km
New "Line.SBT_7151" phases=4 bus1="BT49531.1.2.3.4" bus2="ET11_130.1.2.3.4" linecode="73_4" length=0.08011 units=km
New "Line.SBT_6276" phases=3 bus1="BT72081.1.2.4" bus2="ET16_301.1.2.4" linecode="59_3" length=0.04111 units=km
New "Line.SBT_6286" phases=3 bus1="BT3581.1.2.4" bus2="ET16_301.1.2.4" linecode="91_3" length=0.09652 units=km
New "Line.SBT_6494" phases=4 bus1="BT356531.1.2.3.4" bus2="ET16_299.1.2.3.4" linecode="97_4" length=0.10802 units=km
New "Line.SBT_6049" phases=2 bus1="BT21931.1.4" bus2="BT21921.1.4" linecode="60_2" length=0.06357 units=km
New "Line.SBT_29015" phases=3 bus1="BT21891.1.2.4" bus2="ET11_4955.1.2.4" linecode="59_3" length=0.10050 units=km
New "Line.SBT_28873" phases=2 bus1="BT26881.1.4" bus2="BT26741.1.4" linecode="62_2" length=0.05984 units=km
New "Line.SBT_28835" phases=2 bus1="BT21961.1.4" bus2="BT21951.1.4" linecode="60_2" length=0.05108 units=km
New "Line.SBT_28854" phases=2 bus1="BT619031.1.4" bus2="ET6_6273.1.4" linecode="62_2" length=0.09368 units=km
New "Line.SBT_28804" phases=2 bus1="BT26371.1.4" bus2="ET6_129.1.4" linecode="60_2" length=0.06490 units=km
New "Line.SBT_28762" phases=4 bus1="BT3501.1.2.3.4" bus2="BT3491.1.2.3.4" linecode="97_4" length=0.10445 units=km
New "Line.SBT_28637" phases=3 bus1="BT682001.1.2.4" bus2="BT3581.1.2.4" linecode="91_3" length=0.05325 units=km
New "Line.SBT_28453" phases=4 bus1="BT731551.1.2.3.4" bus2="ET6_5085.1.2.3.4" linecode="73_4" length=0.08163 units=km
New "Line.SBT_28279" phases=4 bus1="BT679291.1.2.3.4" bus2="ET16_1143.1.2.3.4" linecode="73_4" length=0.06720 units=km
New "Line.SBT_27937" phases=2 bus1="BT743931.1.4" bus2="ET6_3019.1.4" linecode="62_2" length=0.08705 units=km
New "Line.SBT_27826" phases=2 bus1="BT665791.1.4" bus2="BT27751.1.4" linecode="60_2" length=0.07750 units=km
...