dss/GD_MT.dss
New "LoadShape.PVIrrad_diaria" npts=24 interval=1 
~ mult = [0 0 0 0 0 0 0.1 0.2 0.3 0.5 0.8 0.9 1.0 1.0 0.99 0.9 0.7 0.4 0.1 0 0 0 0 0] 
New XYCurve.MyPvsT npts=4  xarray=[0  25  75  100]  yarray=[1.2 1.0 0.8  0.6] 
New XYCurve.MyEff npts=4  xarray=[0.1  0.2  0.4  1.0]  yarray=[0.86  0.9  0.93  0.97] 
New Tshape.MyTemp npts=24 interval=1 
~ temp=[25, 25, 25, 25, 25, 25, 25, 25, 35, 40, 45, 50, 60, 60, 55, 40, 35, 30, 25, 25, 25, 25, 25, 25] 

New "PVsystem.GD.RS.000.622.799" phases=3 bus1=811221.1.2.3.4 conn=Delta kv=23.1 pf=0.92 pmpp=54.0 kva=54.0 irradiance=0.98 
~ temperature=25 %cutin=0.1 %cutout=0.1 effcurve=Myeff P-TCurve=MyPvsT Daily=PVIrrad_diaria TDaily=MyTemp 

New "PVsystem.GD.RS.001.255.347" phases=3 bus1=60721.1.2.3.4 conn=Delta kv=23.1 pf=0.92 pmpp=54.0 kva=54.0 irradiance=0.98 
~ temperature=25 %cutin=0.1 %cutout=0.1 effcurve=Myeff P-TCurve=MyPvsT Daily=PVIrrad_diaria TDaily=MyTemp 

New "PVsystem.GD.RS.001.590.899" phases=3 bus1=822371.1.2.3.4 conn=Delta kv=23.1 pf=0.92 pmpp=18.19 kva=19.0 irradiance=0.98 
~ temperature=25 %cutin=0.1 %cutout=0.1 effcurve=Myeff P-TCurve=MyPvsT Daily=PVIrrad_diaria TDaily=MyTemp 

New "PVsystem.GD.RS.001.864.524" phases=3 bus1=815111.1.2.3.4 conn=Delta kv=23.1 pf=0.92 pmpp=50.85 kva=51.0 irradiance=0.98 
~ temperature=25 %cutin=0.1 %cutout=0.1 effcurve=Myeff P-TCurve=MyPvsT Daily=PVIrrad_diaria TDaily=MyTemp 

New "PVsystem.GD.RS.001.922.364" phases=3 bus1=686891.1.2.3.4 conn=Delta kv=23.1 pf=0.92 pmpp=60.0 kva=60.0 irradiance=0.98 
~ temperature=25 %cutin=0.1 %cutout=0.1 effcurve=Myeff P-TCurve=MyPvsT Daily=PVIrrad_diaria TDaily=MyTemp 

New "PVsystem.GD.RS.000.197.382" phases=3 bus1=60651.1.2.3.4 conn=Delta kv=23.1 pf=0.92 pmpp=50.0 kva=50.0 irradiance=0.98 
~ temperature=25 %cutin=0.1 %cutout=0.1 effcurve=Myeff P-TCurve=MyPvsT Daily=PVIrrad_diaria TDaily=MyTemp 

